feeders/8500-Node/IEEE8500_EXP_VOLTAGES.CSV
Bus, BasekV, Node1, Magnitude1, Angle1, pu1, Node2, Magnitude2, Angle2, pu2, Node3, Magnitude3, Angle3, pu3
"SOURCEBUS", 115, 1,      69715,    0.0,      1.05, 2,      69715, -120.0,      1.05, 3,      69715,  120.0,      1.05
"_HVMV_SUB_LSB", 12.47, 1,    7554.34,  -34.4,    1.0493, 2,    7543.39, -154.2,    1.0478, 3,    7562.05,   86.0,    1.0503
"HVMV_SUB_48332", 12.47, 1,    7554.34,  -34.4,    1.0493, 2,    7543.39, -154.2,    1.0478, 3,    7562.04,   86.0,    1.0503
"M1009763", 12.47, 1,     7196.1,  -44.9,   0.99952, 2,    7279.97, -167.1,    1.0112, 3,    7418.66,   79.6,    1.0304
"L2673322", 12.47, 2,    7279.86, -167.1,    1.0112, 0, 0, 0, 0, 0, 0, 0, 0
"M1069148", 12.47, 3,     7420.4,   80.5,    1.0307, 0, 0, 0, 0, 0, 0, 0, 0
"L2673309", 12.47, 3,    7420.11,   80.5,    1.0306, 0, 0, 0, 0, 0, 0, 0, 0
"M1069588", 12.47, 2,     7274.6, -165.3,    1.0104, 0, 0, 0, 0, 0, 0, 0, 0
"L2804270", 12.47, 2,    7274.56, -165.3,    1.0104, 0, 0, 0, 0, 0, 0, 0, 0
"M3036164", 12.47, 2,    7148.39, -166.9,   0.99289, 0, 0, 0, 0, 0, 0, 0, 0
"L2935553", 12.47, 2,    7146.91, -166.9,   0.99269, 0, 0, 0, 0, 0, 0, 0, 0
"M1209749", 12.47, 2,     7384.4, -156.5,    1.0257, 0, 0, 0, 0, 0, 0, 0, 0
"L2748840", 12.47, 2,    7384.18, -156.5,    1.0256, 0, 0, 0, 0, 0, 0, 0, 0
"M1108264", 12.47, 2,    7433.52, -160.4,    1.0325, 0, 0, 0, 0, 0, 0, 0, 0
"M1108263", 12.47, 2,    7433.11, -160.4,    1.0324, 0, 0, 0, 0, 0, 0, 0, 0
"L3085398", 12.47, 1,    7242.78,  -44.9,     1.006, 2,    7323.82, -167.0,    1.0173, 3,     7429.8,   79.6,     1.032
"M1026891", 12.47, 1,    7239.47,  -44.9,    1.0055, 2,    7317.51, -167.0,    1.0164, 3,    7428.67,   79.6,    1.0318
"L3216367", 12.47, 1,    7313.09,  -44.4,    1.0158, 2,    7286.52, -166.6,    1.0121, 3,     7367.3,   79.3,    1.0233
"M1069468", 12.47, 1,    7312.43,  -44.4,    1.0157, 2,    7284.29, -166.6,    1.0118, 3,    7366.53,   79.3,    1.0232
"M1142800", 12.47, 2,    7209.85, -159.0,    1.0014, 0, 0, 0, 0, 0, 0, 0, 0
"M1142799", 12.47, 2,    7209.67, -159.0,    1.0014, 0, 0, 0, 0, 0, 0, 0, 0
"M1047592", 12.47, 1,    7361.87,  -44.5,    1.0225, 2,    7403.53, -166.5,    1.0283, 3,    7462.57,   79.6,    1.0365
"P827512", 12.47, 3,    7462.55,   79.6,    1.0365, 0, 0, 0, 0, 0, 0, 0, 0
"M1047339", 12.47, 1,    7272.61,  -40.8,    1.0101, 2,    7231.78, -161.6,    1.0045, 3,    7424.48,   79.9,    1.0312
"P895104", 12.47, 1,    7272.57,  -40.8,    1.0101, 0, 0, 0, 0, 0, 0, 0, 0
"M1026915", 12.47, 1,    7241.16,  -44.9,    1.0058, 2,    7326.08, -167.0,    1.0176, 3,     7428.8,   79.6,    1.0318
"M1026920", 12.47, 1,    7239.08,  -44.9,    1.0055, 2,    7325.08, -167.0,    1.0174, 3,    7427.82,   79.6,    1.0317
"N1138596", 12.47, 1,    7294.33,  -44.3,    1.0132, 0, 0, 0, 0, 0, 0, 0, 0
"L3254207", 12.47, 1,    7293.82,  -44.3,    1.0131, 0, 0, 0, 0, 0, 0, 0, 0
"M1069464", 12.47, 1,    7311.38,  -44.4,    1.0155, 2,     7280.3, -166.6,    1.0112, 3,     7365.2,   79.2,     1.023
"P873787", 12.47, 2,    7280.27, -166.6,    1.0112, 0, 0, 0, 0, 0, 0, 0, 0
"N1144665", 12.47, 1,    7387.22,  -44.3,    1.0261, 2,     7416.7, -166.3,    1.0302, 3,    7454.74,   79.7,    1.0354
"M1047515", 12.47, 1,    7381.88,  -44.3,    1.0253, 2,    7412.79, -166.3,    1.0296, 3,    7450.08,   79.7,    1.0348
"N1137002", 12.47, 1,    7353.05,  -44.3,    1.0213, 0, 0, 0, 0, 0, 0, 0, 0
"M1047707", 12.47, 1,    7352.74,  -44.3,    1.0213, 0, 0, 0, 0, 0, 0, 0, 0
"L2729406", 12.47, 3,    7265.34,   81.3,    1.0091, 0, 0, 0, 0, 0, 0, 0, 0
"L2897768", 12.47, 3,    7264.81,   81.3,    1.0091, 0, 0, 0, 0, 0, 0, 0, 0
"L3649301", 12.47, 1,    7330.32,  -44.6,    1.0182, 0, 0, 0, 0, 0, 0, 0, 0
"L3649302", 12.47, 1,    7329.94,  -44.6,    1.0181, 0, 0, 0, 0, 0, 0, 0, 0
"L2970842", 12.47, 2,    7455.83, -160.4,    1.0356, 0, 0, 0, 0, 0, 0, 0, 0
"M1089113", 12.47, 2,    7454.42, -160.4,    1.0354, 0, 0, 0, 0, 0, 0, 0, 0
"M1047312", 12.47, 1,    7238.67,  -40.8,    1.0054, 2,    7195.78, -161.7,   0.99948, 3,    7415.26,   79.9,      1.03
"P893163", 12.47, 1,    7238.59,  -40.8,    1.0054, 0, 0, 0, 0, 0, 0, 0, 0
"L2822871", 12.47, 1,    7275.14,  -44.8,    1.0105, 2,    7360.77, -166.8,    1.0224, 3,    7439.17,   79.6,    1.0333
"M1026872", 12.47, 1,    7272.44,  -44.8,    1.0101, 2,    7358.02, -166.8,     1.022, 3,    7438.28,   79.6,    1.0332
"M1026312", 12.47, 2,    7043.03, -162.0,   0.97826, 0, 0, 0, 0, 0, 0, 0, 0
"L2973163", 12.47, 2,    7040.32, -162.0,   0.97788, 0, 0, 0, 0, 0, 0, 0, 0
"L3728038", 12.47, 1,    7319.33,  -44.4,    1.0166, 0, 0, 0, 0, 0, 0, 0, 0
"L3728039", 12.47, 1,     7318.8,  -44.4,    1.0166, 0, 0, 0, 0, 0, 0, 0, 0
"M1069567", 12.47, 2,    7287.46, -165.3,    1.0122, 0, 0, 0, 0, 0, 0, 0, 0
"M1069582", 12.47, 2,    7278.41, -165.3,     1.011, 0, 0, 0, 0, 0, 0, 0, 0
"N1140830", 12.47, 1,    7183.06,  -44.7,   0.99771, 0, 0, 0, 0, 0, 0, 0, 0
"L3216351", 12.47, 1,    7182.97,  -44.7,    0.9977, 0, 0, 0, 0, 0, 0, 0, 0
"L2952007", 12.47, 3,    7381.83,   84.8,    1.0253, 0, 0, 0, 0, 0, 0, 0, 0
"L2861158", 12.47, 3,    7381.48,   84.8,    1.0253, 0, 0, 0, 0, 0, 0, 0, 0
"N1140827", 12.47, 1,    7188.39,  -44.6,   0.99845, 2,    7371.67, -166.2,    1.0239, 3,    7321.26,   79.8,    1.0169
"M1026726", 12.47, 1,    7188.31,  -44.6,   0.99844, 2,    7371.54, -166.2,    1.0239, 3,    7321.19,   79.8,    1.0169
"L2730106", 12.47, 1,    6831.35,  -41.0,   0.94886, 2,    7062.26, -162.0,   0.98093, 3,    7458.91,   81.5,     1.036
"N1142099", 12.47, 1,    6828.74,  -41.0,   0.94849, 2,       7061, -162.1,   0.98076, 3,    7458.85,   81.5,     1.036
"M1026658", 12.47, 1,    7181.31,  -44.7,   0.99746, 2,    7373.28, -166.2,    1.0241, 3,    7306.89,   79.8,    1.0149
"L3172805", 12.47, 1,    7181.12,  -44.7,   0.99744, 0, 0, 0, 0, 0, 0, 0, 0
"P895112", 12.47, 1,    7127.91,  -38.7,   0.99005, 0, 0, 0, 0, 0, 0, 0, 0
"L3048962", 12.47, 1,    7127.84,  -38.7,   0.99004, 0, 0, 0, 0, 0, 0, 0, 0
"L2991914", 12.47, 1,    7334.47,  -44.4,    1.0187, 2,    7385.87, -166.3,    1.0259, 3,    7411.62,   79.7,    1.0295
"M1047503", 12.47, 1,    7330.78,  -44.4,    1.0182, 2,    7385.57, -166.3,    1.0258, 3,     7409.3,   79.7,    1.0291
"M1047751", 12.47, 1,    7309.83,  -44.1,    1.0153, 0, 0, 0, 0, 0, 0, 0, 0
"L2973154", 12.47, 1,    7309.79,  -44.1,    1.0153, 0, 0, 0, 0, 0, 0, 0, 0
"L3010565", 12.47, 3,    7417.24,   80.4,    1.0302, 0, 0, 0, 0, 0, 0, 0, 0
"L2897775", 12.47, 3,    7416.97,   80.4,    1.0302, 0, 0, 0, 0, 0, 0, 0, 0
"M1125955", 12.47, 3,    7460.97,   82.1,    1.0363, 0, 0, 0, 0, 0, 0, 0, 0
"M1125957", 12.47, 3,    7460.95,   82.1,    1.0363, 0, 0, 0, 0, 0, 0, 0, 0
"M1069640", 12.47, 2,    7251.16, -165.3,    1.0072, 0, 0, 0, 0, 0, 0, 0, 0
"L2804269", 12.47, 2,    7250.42, -165.3,    1.0071, 0, 0, 0, 0, 0, 0, 0, 0
"M1026702", 12.47, 1,     7212.3,  -44.6,    1.0018, 2,    7375.42, -166.2,    1.0244, 3,    7339.99,   79.8,    1.0195
"N1139551", 12.47, 1,    7200.97,  -44.6,    1.0002, 2,    7374.86, -166.2,    1.0243, 3,    7333.53,   79.8,    1.0186
"N1136355", 12.47, 2,     7327.9, -165.2,    1.0178, 0, 0, 0, 0, 0, 0, 0, 0
"L2783231", 12.47, 2,    7320.61, -165.2,    1.0168, 0, 0, 0, 0, 0, 0, 0, 0
"L2748143", 12.47, 1,    7230.63,  -43.1,    1.0043, 0, 0, 0, 0, 0, 0, 0, 0
"L3251854", 12.47, 1,    7230.52,  -43.1,    1.0043, 0, 0, 0, 0, 0, 0, 0, 0
"M1069610", 12.47, 2,    7262.13, -165.3,    1.0087, 0, 0, 0, 0, 0, 0, 0, 0
"M1069600", 12.47, 2,    7262.02, -165.3,    1.0087, 0, 0, 0, 0, 0, 0, 0, 0
"M1069424", 12.47, 1,     7303.3,  -44.3,    1.0144, 2,     7249.8, -166.7,     1.007, 3,    7354.94,   79.1,    1.0216
"L2935549", 12.47, 1,    7302.21,  -44.3,    1.0143, 2,    7245.64, -166.7,    1.0064, 3,    7353.73,   79.1,    1.0214
"P895089", 12.47, 3,    7508.61,   80.6,    1.0429, 0, 0, 0, 0, 0, 0, 0, 0
"L3235242", 12.47, 3,    7508.38,   80.6,    1.0429, 0, 0, 0, 0, 0, 0, 0, 0
"M1026795", 12.47, 1,    7295.15,  -44.5,    1.0133, 2,    7382.94, -166.2,    1.0255, 3,    7387.24,   79.7,    1.0261
"N1140522", 12.47, 3,    7387.21,   79.7,    1.0261, 0, 0, 0, 0, 0, 0, 0, 0
"L3030199", 12.47, 1,     7172.9,  -38.7,    0.9963, 2,    7211.23, -159.0,    1.0016, 3,    7445.39,   82.1,    1.0341
"M1125934", 12.47, 1,    7172.92,  -38.7,    0.9963, 2,    7210.29, -159.0,    1.0015, 3,    7444.71,   82.1,    1.0341
"M1069189", 12.47, 1,     7429.1,  -40.2,    1.0319, 2,    7405.37, -160.6,    1.0286, 3,    7435.92,   80.4,    1.0328
"L2860487", 12.47, 3,    7435.79,   80.4,    1.0328, 0, 0, 0, 0, 0, 0, 0, 0
"221-312488", 12.47, 1,    6867.95,  -40.4,   0.95394, 2,    7061.34, -161.5,    0.9808, 3,    7450.87,   81.8,    1.0349
"M1089183", 12.47, 1,    6867.94,  -40.4,   0.95394, 2,    7061.33, -161.5,    0.9808, 3,    7450.86,   81.8,    1.0349
"M1108464", 12.47, 2,    7058.95, -161.5,   0.98047, 0, 0, 0, 0, 0, 0, 0, 0
"L3102286", 12.47, 2,    7058.44, -161.5,    0.9804, 0, 0, 0, 0, 0, 0, 0, 0
"F739845", 12.47, 1,    7221.64,  -40.7,    1.0031, 2,    7169.11, -161.7,   0.99577, 3,    7409.82,   79.9,    1.0292
"293471", 12.47, 1,    7221.58,  -40.7,    1.0031, 2,    7169.04, -161.7,   0.99576, 3,    7409.75,   79.9,    1.0292
"P827499", 12.47, 1,    7301.03,  -44.3,    1.0141, 0, 0, 0, 0, 0, 0, 0, 0
"N1139254", 12.47, 1,    7301.02,  -44.3,    1.0141, 0, 0, 0, 0, 0, 0, 0, 0
"M1026657", 12.47, 1,    7177.83,  -44.7,   0.99698, 0, 0, 0, 0, 0, 0, 0, 0
"M1026656", 12.47, 1,     7177.6,  -44.7,   0.99695, 0, 0, 0, 0, 0, 0, 0, 0
"M1108299", 12.47, 2,    7179.26, -159.4,   0.99718, 0, 0, 0, 0, 0, 0, 0, 0
"M1108300", 12.47, 2,    7179.24, -159.4,   0.99718, 0, 0, 0, 0, 0, 0, 0, 0
"L3198355", 12.47, 2,    7178.85, -159.4,   0.99712, 0, 0, 0, 0, 0, 0, 0, 0
"L2805037", 12.47, 2,    7178.85, -159.4,   0.99712, 0, 0, 0, 0, 0, 0, 0, 0
"N1137994", 12.47, 3,     7372.2,   79.3,     1.024, 0, 0, 0, 0, 0, 0, 0, 0
"M1069484", 12.47, 3,    7370.72,   79.3,    1.0238, 0, 0, 0, 0, 0, 0, 0, 0
"L2860504", 12.47, 1,    7184.11,  -44.7,   0.99785, 0, 0, 0, 0, 0, 0, 0, 0
"L2860493", 12.47, 1,     7183.4,  -44.7,   0.99776, 0, 0, 0, 0, 0, 0, 0, 0
"M1026783", 12.47, 1,    7284.21,  -44.5,    1.0118, 2,    7382.07, -166.2,    1.0254, 3,    7381.25,   79.7,    1.0252
"M1026780", 12.47, 1,    7282.46,  -44.5,    1.0115, 2,    7381.91, -166.2,    1.0253, 3,    7380.28,   79.7,    1.0251
"P895111", 12.47, 3,    7464.21,   82.4,    1.0368, 0, 0, 0, 0, 0, 0, 0, 0
"L2895496", 12.47, 3,    7463.86,   82.4,    1.0367, 0, 0, 0, 0, 0, 0, 0, 0
"N1140819", 12.47, 1,    7192.77,  -44.6,   0.99906, 2,     7372.7, -166.2,     1.024, 3,    7325.72,   79.8,    1.0175
"M1026700", 12.47, 1,     7191.6,  -44.6,    0.9989, 2,    7372.34, -166.2,     1.024, 3,    7324.46,   79.8,    1.0173
"M1089173", 12.47, 3,    7268.13,   81.3,    1.0095, 0, 0, 0, 0, 0, 0, 0, 0
"L2935551", 12.47, 3,    7267.14,   81.3,    1.0094, 0, 0, 0, 0, 0, 0, 0, 0
"M1026344", 12.47, 1,    7175.81,  -40.7,    0.9967, 0, 0, 0, 0, 0, 0, 0, 0
"M1026364", 12.47, 1,    7175.51,  -40.7,   0.99666, 0, 0, 0, 0, 0, 0, 0, 0
"L2879070", 12.47, 1,    7349.89,  -44.6,    1.0209, 2,    7399.39, -166.5,    1.0278, 3,    7458.99,   79.7,     1.036
"L3216345", 12.47, 1,    7341.77,  -44.6,    1.0198, 2,    7396.82, -166.5,    1.0274, 3,       7457,   79.7,    1.0358
"M1069428", 12.47, 1,    7304.42,  -44.3,    1.0146, 2,    7253.33, -166.7,    1.0075, 3,    7356.02,   79.1,    1.0217
"N1139257", 12.47, 2,    7253.28, -166.7,    1.0075, 0, 0, 0, 0, 0, 0, 0, 0
"L2991919", 12.47, 1,    7171.77,  -40.7,   0.99614, 0, 0, 0, 0, 0, 0, 0, 0
"M1026361", 12.47, 1,    7169.22,  -40.7,   0.99579, 0, 0, 0, 0, 0, 0, 0, 0
"N1147857", 12.47, 1,    7196.06,  -44.9,   0.99951, 0, 0, 0, 0, 0, 0, 0, 0
"M1009742", 12.47, 1,    7194.33,  -44.9,   0.99927, 0, 0, 0, 0, 0, 0, 0, 0
"Q14412", 12.47, 1,    7263.44,  -40.8,    1.0089, 2,    7222.31, -161.6,    1.0032, 3,    7422.16,   79.9,    1.0309
"M1047325", 12.47, 1,    7260.84,  -40.8,    1.0085, 2,    7219.68, -161.6,    1.0028, 3,    7421.47,   79.9,    1.0308
"N1139263", 12.47, 1,    7312.35,  -44.4,    1.0157, 0, 0, 0, 0, 0, 0, 0, 0
"L3048227", 12.47, 1,    7312.29,  -44.4,    1.0157, 0, 0, 0, 0, 0, 0, 0, 0
"P827506", 12.47, 1,     7312.4,  -44.4,    1.0157, 0, 0, 0, 0, 0, 0, 0, 0
"M1069469", 12.47, 1,    7312.37,  -44.4,    1.0157, 0, 0, 0, 0, 0, 0, 0, 0
"M1027019", 12.47, 2,    7288.66, -167.0,    1.0124, 0, 0, 0, 0, 0, 0, 0, 0
"L2785522", 12.47, 2,    7288.55, -167.0,    1.0124, 0, 0, 0, 0, 0, 0, 0, 0
"L3216338", 12.47, 2,    7229.16, -167.2,    1.0041, 0, 0, 0, 0, 0, 0, 0, 0
"L2973146", 12.47, 2,    7229.05, -167.2,    1.0041, 0, 0, 0, 0, 0, 0, 0, 0
"M3037452", 12.47, 1,    7161.77,  -40.7,   0.99475, 0, 0, 0, 0, 0, 0, 0, 0
"L2973164", 12.47, 1,     7161.7,  -40.7,   0.99474, 0, 0, 0, 0, 0, 0, 0, 0
"L3120376", 12.47, 1,    7286.76,  -44.8,    1.0121, 0, 0, 0, 0, 0, 0, 0, 0
"M1026925", 12.47, 1,    7285.06,  -44.8,    1.0119, 0, 0, 0, 0, 0, 0, 0, 0
"M1047612", 12.47, 3,    7470.41,   79.7,    1.0376, 0, 0, 0, 0, 0, 0, 0, 0
"P828360", 12.47, 3,    7470.38,   79.7,    1.0376, 0, 0, 0, 0, 0, 0, 0, 0
"M1089195", 12.47, 3,    7508.12,   80.6,    1.0429, 0, 0, 0, 0, 0, 0, 0, 0
"L3141393", 12.47, 3,    7507.91,   80.6,    1.0428, 0, 0, 0, 0, 0, 0, 0, 0
"M1026946", 12.47, 2,    7304.94, -167.0,    1.0146, 0, 0, 0, 0, 0, 0, 0, 0
"M1026940", 12.47, 2,    7304.41, -167.0,    1.0146, 0, 0, 0, 0, 0, 0, 0, 0
"M1047471", 12.47, 2,    7108.38, -167.1,   0.98734, 0, 0, 0, 0, 0, 0, 0, 0
"L3216349", 12.47, 2,    7108.36, -167.1,   0.98733, 0, 0, 0, 0, 0, 0, 0, 0
"M1047401", 12.47, 1,    7127.58,  -44.8,      0.99, 0, 0, 0, 0, 0, 0, 0, 0
"L2748132", 12.47, 1,     7127.5,  -44.8,   0.98999, 0, 0, 0, 0, 0, 0, 0, 0
"L3122820", 12.47, 1,    7157.06,  -44.7,    0.9941, 0, 0, 0, 0, 0, 0, 0, 0
"L3141398", 12.47, 1,       7157,  -44.7,   0.99409, 0, 0, 0, 0, 0, 0, 0, 0
"M1108360", 12.47, 3,    7341.49,   81.5,    1.0197, 0, 0, 0, 0, 0, 0, 0, 0
"L3048968", 12.47, 3,    7341.26,   81.5,    1.0197, 0, 0, 0, 0, 0, 0, 0, 0
"L2801950", 12.47, 3,    7397.67,   80.4,    1.0275, 0, 0, 0, 0, 0, 0, 0, 0
"M1069224", 12.47, 3,    7397.01,   80.4,    1.0274, 0, 0, 0, 0, 0, 0, 0, 0
"L2766746", 12.47, 3,    7351.55,   79.5,    1.0211, 0, 0, 0, 0, 0, 0, 0, 0
"M1027073", 12.47, 3,    7349.43,   79.5,    1.0208, 0, 0, 0, 0, 0, 0, 0, 0
"M1142873", 12.47, 3,    7463.62,   82.4,    1.0367, 0, 0, 0, 0, 0, 0, 0, 0
"M1069181", 12.47, 1,    7388.38,  -40.3,    1.0262, 0, 0, 0, 0, 0, 0, 0, 0
"L2973151", 12.47, 1,    7386.77,  -40.3,     1.026, 0, 0, 0, 0, 0, 0, 0, 0
"L3179682", 12.47, 3,     7423.4,   81.6,    1.0311, 0, 0, 0, 0, 0, 0, 0, 0
"L2786274", 12.47, 3,    7423.32,   81.6,    1.0311, 0, 0, 0, 0, 0, 0, 0, 0
"L3066816", 12.47, 1,    7182.07,  -44.7,   0.99757, 0, 0, 0, 0, 0, 0, 0, 0
"M1026667", 12.47, 1,    7181.66,  -44.7,   0.99751, 0, 0, 0, 0, 0, 0, 0, 0
"M1108529", 12.47, 1,    7424.18,  -41.7,    1.0312, 2,    7456.89, -162.9,    1.0357, 3,    7504.29,   81.2,    1.0423
"M1108532", 12.47, 1,     7421.8,  -41.7,    1.0309, 2,    7455.39, -162.9,    1.0355, 3,    7504.37,   81.2,    1.0423
"L2766723", 12.47, 1,    7183.18,  -44.7,   0.99772, 0, 0, 0, 0, 0, 0, 0, 0
"L3122822", 12.47, 1,    7183.04,  -44.7,   0.99771, 0, 0, 0, 0, 0, 0, 0, 0
"L2673312", 12.47, 1,    7184.08,  -44.9,   0.99785, 0, 0, 0, 0, 0, 0, 0, 0
"L3235247", 12.47, 1,    7183.91,  -44.9,   0.99783, 0, 0, 0, 0, 0, 0, 0, 0
"M1166391", 12.47, 3,    7396.58,   84.8,    1.0274, 0, 0, 0, 0, 0, 0, 0, 0
"L3254873", 12.47, 3,    7392.58,   84.8,    1.0268, 0, 0, 0, 0, 0, 0, 0, 0
"L2861157", 12.47, 3,    7435.76,   84.9,    1.0328, 0, 0, 0, 0, 0, 0, 0, 0
"P901951", 12.47, 3,    7432.07,   84.9,    1.0323, 0, 0, 0, 0, 0, 0, 0, 0
"M1047346", 12.47, 1,    7286.83,  -40.8,    1.0121, 2,    7244.83, -161.6,    1.0063, 3,    7427.72,   79.9,    1.0317
"M1047345", 12.47, 1,    7283.05,  -40.8,    1.0116, 2,    7241.56, -161.6,    1.0058, 3,    7426.88,   79.9,    1.0316
"L2989596", 12.47, 2,    7296.75, -165.2,    1.0135, 0, 0, 0, 0, 0, 0, 0, 0
"L2822873", 12.47, 2,    7296.66, -165.2,    1.0135, 0, 0, 0, 0, 0, 0, 0, 0
"M1108328", 12.47, 3,    7399.78,   81.6,    1.0278, 0, 0, 0, 0, 0, 0, 0, 0
"L2875754", 12.47, 3,     7399.7,   81.6,    1.0278, 0, 0, 0, 0, 0, 0, 0, 0
"L2786204", 12.47, 3,     7497.9,   85.0,    1.0414, 0, 0, 0, 0, 0, 0, 0, 0
"M1209819", 12.47, 3,    7493.64,   85.0,    1.0408, 0, 0, 0, 0, 0, 0, 0, 0
"P901972", 12.47, 1,    7193.96,  -44.9,   0.99922, 0, 0, 0, 0, 0, 0, 0, 0
"M1009726", 12.47, 1,    7191.19,  -44.9,   0.99884, 0, 0, 0, 0, 0, 0, 0, 0
"M1047702", 12.47, 1,    7353.11,  -44.3,    1.0213, 0, 0, 0, 0, 0, 0, 0, 0
"N1137001", 12.47, 1,    7353.07,  -44.3,    1.0213, 0, 0, 0, 0, 0, 0, 0, 0
"L2767340", 12.47, 1,    6926.76,  -40.2,   0.96211, 2,     7106.8, -161.1,   0.98712, 3,    7460.08,   81.8,    1.0362
"M3037449", 12.47, 1,    6926.76,  -40.2,   0.96211, 2,     7106.8, -161.1,   0.98712, 3,    7460.08,   81.8,    1.0362
"M1047457", 12.47, 2,     7116.3, -167.1,   0.98844, 0, 0, 0, 0, 0, 0, 0, 0
"L2710546", 12.47, 2,     7115.4, -167.1,   0.98831, 0, 0, 0, 0, 0, 0, 0, 0
"L2674027", 12.47, 1,     6766.8,  -41.5,   0.93989, 2,    7029.14, -162.7,   0.97633, 3,     7458.2,   81.3,    1.0359
"L2692633", 12.47, 1,    6759.59,  -41.6,   0.93889, 2,    7025.09, -162.8,   0.97577, 3,    7458.16,   81.3,    1.0359
"N1142108", 12.47, 1,    7173.83,  -38.9,   0.99643, 0, 0, 0, 0, 0, 0, 0, 0
"L2674051", 12.47, 1,    7173.75,  -38.9,   0.99642, 0, 0, 0, 0, 0, 0, 0, 0
"M1069135", 12.47, 1,    7311.45,  -40.7,    1.0155, 2,    7266.04, -161.5,    1.0092, 3,    7434.37,   79.9,    1.0326
"R18242", 12.47, 1,    7306.42,  -40.8,    1.0148, 2,       7262, -161.6,    1.0087, 3,    7433.83,   79.9,    1.0325
"M1047534", 12.47, 1,    7470.66,  -44.1,    1.0377, 2,    7479.55, -166.1,    1.0389, 3,    7511.48,   79.8,    1.0433
"N1136663", 12.47, 1,    7449.01,  -44.2,    1.0346, 2,    7463.05, -166.1,    1.0366, 3,    7499.81,   79.8,    1.0417
"M1108508", 12.47, 3,    7505.12,   81.0,    1.0424, 0, 0, 0, 0, 0, 0, 0, 0
"L3097861", 12.47, 3,    7505.06,   81.0,    1.0424, 0, 0, 0, 0, 0, 0, 0, 0
"M1069560", 12.47, 2,    7292.71, -165.2,    1.0129, 0, 0, 0, 0, 0, 0, 0, 0
"L2973153", 12.47, 1,    7363.92,  -44.3,    1.0228, 2,    7352.75, -166.5,    1.0213, 3,    7472.53,   79.7,    1.0379
"N1136998", 12.47, 1,    7363.37,  -44.3,    1.0228, 2,    7351.48, -166.5,    1.0211, 3,    7472.69,   79.7,    1.0379
"L2898515", 12.47, 3,    7489.61,   83.6,    1.0403, 0, 0, 0, 0, 0, 0, 0, 0
"M1166387", 12.47, 3,    7489.42,   83.6,    1.0403, 0, 0, 0, 0, 0, 0, 0, 0
"M1047442", 12.47, 2,    7146.45, -167.0,   0.99262, 0, 0, 0, 0, 0, 0, 0, 0
"L3235250", 12.47, 2,    7146.39, -167.0,   0.99261, 0, 0, 0, 0, 0, 0, 0, 0
"M1142871", 12.47, 1,    7098.25,  -38.9,   0.98593, 2,    7199.51, -159.4,   0.99999, 3,    7464.52,   82.4,    1.0368
"M1142874", 12.47, 1,    7093.01,  -39.0,    0.9852, 2,     7196.5, -159.5,   0.99958, 3,    7464.25,   82.4,    1.0368
"L2955081", 12.47, 1,    7174.32,  -38.9,   0.99649, 2,    7186.53, -159.2,   0.99819, 3,    7425.86,   81.7,    1.0314
"M1108315", 12.47, 1,    7174.67,  -39.0,   0.99654, 2,    7183.86, -159.3,   0.99782, 3,    7423.62,   81.6,    1.0311
"L2973162", 12.47, 1,    7175.89,  -40.7,   0.99671, 2,    7100.54, -161.9,   0.98625, 3,    7417.01,   80.0,    1.0302
"M1026333", 12.47, 1,    7175.29,  -40.7,   0.99663, 2,    7096.79, -161.9,   0.98573, 3,    7417.89,   80.0,    1.0303
"M1009832", 12.47, 2,    7237.59, -167.2,    1.0053, 0, 0, 0, 0, 0, 0, 0, 0
"L2860479", 12.47, 2,    7237.56, -167.2,    1.0053, 0, 0, 0, 0, 0, 0, 0, 0
"M1026854", 12.47, 1,    7301.93,  -44.7,    1.0142, 2,    7380.79, -166.7,    1.0252, 3,    7446.74,   79.7,    1.0343
"P901894", 12.47, 1,    7301.71,  -44.7,    1.0142, 0, 0, 0, 0, 0, 0, 0, 0
"M1026485", 12.47, 2,    7200.78, -161.7,    1.0002, 0, 0, 0, 0, 0, 0, 0, 0
"M1026492", 12.47, 2,    7200.54, -161.7,    1.0001, 0, 0, 0, 0, 0, 0, 0, 0
"D6413567-3_INT", 12.47, 1,    7410.26,  -40.2,    1.0293, 2,    7389.34, -160.8,    1.0264, 3,    7434.36,   80.4,    1.0326
"E182724", 12.47, 1,    7410.21,  -40.2,    1.0293, 2,    7389.27, -160.8,    1.0264, 3,    7434.36,   80.4,    1.0326
"N1139541", 12.47, 1,    7412.19,  -40.2,    1.0295, 2,    7390.98, -160.7,    1.0266, 3,    7434.51,   80.4,    1.0326
"M4122658", 12.47, 1,    6852.43,  -40.8,   0.95178, 2,    7072.44, -161.8,   0.98234, 3,    7459.52,   81.6,    1.0361
"L2933135", 12.47, 1,    6852.23,  -40.8,   0.95176, 2,    7072.35, -161.8,   0.98233, 3,    7459.51,   81.6,    1.0361
"L2729414", 12.47, 1,    7212.23,  -44.6,    1.0018, 2,    7375.34, -166.2,    1.0244, 3,    7339.92,   79.8,    1.0195
"L2729430", 12.47, 2,    7274.67, -167.1,    1.0104, 0, 0, 0, 0, 0, 0, 0, 0
"L2766742", 12.47, 2,    7267.69, -167.1,    1.0095, 0, 0, 0, 0, 0, 0, 0, 0
"M1026972", 12.47, 2,    7150.35, -166.9,   0.99316, 0, 0, 0, 0, 0, 0, 0, 0
"L2860483", 12.47, 2,    7150.12, -166.9,   0.99313, 0, 0, 0, 0, 0, 0, 0, 0
"L2860490", 12.47, 1,    7296.44,  -40.8,    1.0135, 2,    7253.42, -161.6,    1.0075, 3,    7430.68,   79.9,    1.0321
"L3104134", 12.47, 1,    7290.85,  -40.8,    1.0127, 2,    7248.39, -161.6,    1.0068, 3,    7428.87,   79.9,    1.0319
"M1089144", 12.47, 1,    7035.91,  -39.6,   0.97727, 0, 0, 0, 0, 0, 0, 0, 0
"P827522", 12.47, 1,     7035.9,  -39.6,   0.97727, 0, 0, 0, 0, 0, 0, 0, 0
"M1089118", 12.47, 1,    7470.04,  -40.0,    1.0376, 2,    7448.21, -160.4,    1.0345, 3,    7464.45,   80.6,    1.0368
"L3048208", 12.47, 1,    7469.98,  -40.0,    1.0376, 0, 0, 0, 0, 0, 0, 0, 0
"M1108505", 12.47, 1,    6786.02,  -41.4,   0.94256, 2,    7040.12, -162.5,   0.97785, 3,    7458.15,   81.4,    1.0359
"L2955047", 12.47, 1,    6780.15,  -41.4,   0.94174, 2,    7036.77, -162.6,   0.97739, 3,    7458.18,   81.4,    1.0359
"M1089148", 12.47, 1,    7032.98,  -39.6,   0.97686, 0, 0, 0, 0, 0, 0, 0, 0
"L2766721", 12.47, 1,    7032.87,  -39.6,   0.97685, 0, 0, 0, 0, 0, 0, 0, 0
"M1026745", 12.47, 2,    7104.66, -167.1,   0.98682, 0, 0, 0, 0, 0, 0, 0, 0
"L3029183", 12.47, 2,    7104.56, -167.1,    0.9868, 0, 0, 0, 0, 0, 0, 0, 0
"L2710512", 12.47, 2,    7121.48, -167.0,   0.98916, 0, 0, 0, 0, 0, 0, 0, 0
"M1047828", 12.47, 2,    7117.06, -167.0,   0.98854, 0, 0, 0, 0, 0, 0, 0, 0
"M1047342", 12.47, 1,    7282.47,  -40.8,    1.0115, 0, 0, 0, 0, 0, 0, 0, 0
"L3197645", 12.47, 1,    7282.35,  -40.8,    1.0115, 0, 0, 0, 0, 0, 0, 0, 0
"M1069192", 12.47, 1,    7393.13,  -40.3,    1.0269, 0, 0, 0, 0, 0, 0, 0, 0
"L3235253", 12.47, 1,    7392.99,  -40.3,    1.0269, 0, 0, 0, 0, 0, 0, 0, 0
"L3214071", 12.47, 1,    7017.42,  -39.5,    0.9747, 2,    7154.06, -160.2,   0.99368, 3,    7461.39,   82.1,    1.0364
"M1125952", 12.47, 1,    7010.03,  -39.6,   0.97368, 2,    7149.94, -160.3,   0.99311, 3,    7461.16,   82.1,    1.0363
"M1027101", 12.47, 2,    7118.03, -167.0,   0.98868, 0, 0, 0, 0, 0, 0, 0, 0
"L2860480", 12.47, 2,    7117.72, -167.0,   0.98863, 0, 0, 0, 0, 0, 0, 0, 0
"L2710517", 12.47, 1,    7159.08,  -44.7,   0.99438, 0, 0, 0, 0, 0, 0, 0, 0
"M1026646", 12.47, 1,    7157.62,  -44.7,   0.99418, 0, 0, 0, 0, 0, 0, 0, 0
"M1069662", 12.47, 2,    7249.82, -165.3,     1.007, 0, 0, 0, 0, 0, 0, 0, 0
"L2935547", 12.47, 2,    7249.76, -165.3,     1.007, 0, 0, 0, 0, 0, 0, 0, 0
"M1026931", 12.47, 1,    7280.23,  -44.8,    1.0112, 0, 0, 0, 0, 0, 0, 0, 0
"L3216336", 12.47, 1,    7279.72,  -44.8,    1.0111, 0, 0, 0, 0, 0, 0, 0, 0
"L3142049", 12.47, 1,    6818.06,  -41.1,   0.94701, 2,    7055.79, -162.2,   0.98003, 3,    7458.63,   81.5,     1.036
"M1108493", 12.47, 1,    6808.31,  -41.2,   0.94566, 2,       7051, -162.3,   0.97937, 3,    7458.47,   81.5,     1.036
"M1069169", 12.47, 1,    7398.25,  -40.3,    1.0276, 2,    7379.07, -160.8,    1.0249, 3,    7433.45,   80.3,    1.0325
"L3010556", 12.47, 1,    7391.39,  -40.3,    1.0266, 2,     7370.4, -160.9,    1.0237, 3,    7432.98,   80.3,    1.0324
"L2991933", 12.47, 3,    7418.86,   79.6,    1.0305, 0, 0, 0, 0, 0, 0, 0, 0
"L3122837", 12.47, 3,    7418.19,   79.6,    1.0304, 0, 0, 0, 0, 0, 0, 0, 0
"L2691936", 12.47, 1,    7279.18,  -44.8,    1.0111, 0, 0, 0, 0, 0, 0, 0, 0
"L2897772", 12.47, 1,     7232.6,  -40.8,    1.0046, 0, 0, 0, 0, 0, 0, 0, 0
"L3101814", 12.47, 1,     7232.6,  -40.8,    1.0046, 0, 0, 0, 0, 0, 0, 0, 0
"L2766732", 12.47, 2,    7200.99, -161.7,    1.0002, 0, 0, 0, 0, 0, 0, 0, 0
"L2989564", 12.47, 2,    7250.13, -165.3,     1.007, 0, 0, 0, 0, 0, 0, 0, 0
"M1126016", 12.47, 1,    6770.78,  -41.4,   0.94044, 0, 0, 0, 0, 0, 0, 0, 0
"L3120534", 12.47, 1,    6770.41,  -41.4,   0.94039, 0, 0, 0, 0, 0, 0, 0, 0
"M1026330", 12.47, 1,    7174.35,  -40.7,    0.9965, 2,    7089.48, -161.9,   0.98471, 3,    7419.71,   80.0,    1.0306
"L2766726", 12.47, 2,    7089.43, -161.9,    0.9847, 0, 0, 0, 0, 0, 0, 0, 0
"P901912", 12.47, 2,     7374.6, -166.3,    1.0243, 0, 0, 0, 0, 0, 0, 0, 0
"L3195365", 12.47, 2,     7374.6, -166.3,    1.0243, 0, 0, 0, 0, 0, 0, 0, 0
"M1108381", 12.47, 1,    6871.32,  -40.4,   0.95441, 2,     7064.8, -161.5,   0.98128, 3,    7453.57,   81.8,    1.0353
"L3254237", 12.47, 1,    6870.11,  -40.4,   0.95424, 2,    7064.01, -161.5,   0.98117, 3,    7452.91,   81.8,    1.0352
"L2804262", 12.47, 1,    7299.21,  -44.8,    1.0138, 0, 0, 0, 0, 0, 0, 0, 0
"L2841639", 12.47, 1,    7296.82,  -44.8,    1.0135, 0, 0, 0, 0, 0, 0, 0, 0
"N1230123", 12.47, 2,    7071.45, -161.5,   0.98221, 0, 0, 0, 0, 0, 0, 0, 0
"L2708744", 12.47, 2,    7069.84, -161.5,   0.98198, 0, 0, 0, 0, 0, 0, 0, 0
"M1069519", 12.47, 1,     7234.4,  -43.1,    1.0048, 2,    7337.48, -165.1,    1.0192, 3,    7517.65,   80.3,    1.0442
"P901927", 12.47, 2,    7337.46, -165.1,    1.0192, 0, 0, 0, 0, 0, 0, 0, 0
"L2897790", 12.47, 3,    7521.94,   80.3,    1.0448, 0, 0, 0, 0, 0, 0, 0, 0
"L2935566", 12.47, 3,    7521.81,   80.3,    1.0448, 0, 0, 0, 0, 0, 0, 0, 0
"L3216337", 12.47, 1,    7280.18,  -44.8,    1.0112, 0, 0, 0, 0, 0, 0, 0, 0
"P901931", 12.47, 3,    7522.18,   80.3,    1.0448, 0, 0, 0, 0, 0, 0, 0, 0
"M1069548", 12.47, 3,    7522.16,   80.3,    1.0448, 0, 0, 0, 0, 0, 0, 0, 0
"M1010013", 12.47, 1,    7107.18,  -45.1,   0.98717, 0, 0, 0, 0, 0, 0, 0, 0
"L3120503", 12.47, 1,    7107.13,  -45.1,   0.98716, 0, 0, 0, 0, 0, 0, 0, 0
"M1089145", 12.47, 1,    7035.71,  -39.6,   0.97724, 2,    7033.08, -160.0,   0.97688, 3,    7315.34,   81.1,    1.0161
"L3215385", 12.47, 1,    7035.63,  -39.6,   0.97723, 2,    7032.96, -160.0,   0.97686, 3,    7315.26,   81.1,    1.0161
"M1026852", 12.47, 1,     7293.9,  -44.8,    1.0131, 2,    7375.44, -166.7,    1.0244, 3,    7444.47,   79.7,     1.034
"M1069420", 12.47, 1,    7301.05,  -44.3,    1.0141, 2,     7241.3, -166.8,    1.0058, 3,    7352.33,   79.1,    1.0212
"L3157708", 12.47, 3,    7430.81,   79.7,    1.0321, 0, 0, 0, 0, 0, 0, 0, 0
"N1137991", 12.47, 3,     7430.8,   79.7,    1.0321, 0, 0, 0, 0, 0, 0, 0, 0
"M1108413", 12.47, 1,    6876.11,  -40.5,   0.95507, 0, 0, 0, 0, 0, 0, 0, 0
"M1108460", 12.47, 1,    6873.67,  -40.5,   0.95473, 0, 0, 0, 0, 0, 0, 0, 0
"P827532", 12.47, 1,    7260.81,  -40.8,    1.0085, 0, 0, 0, 0, 0, 0, 0, 0
"M1047326", 12.47, 1,    7260.79,  -40.8,    1.0085, 0, 0, 0, 0, 0, 0, 0, 0
"E182732", 12.47, 1,    7250.08,  -44.5,     1.007, 2,    7378.69, -166.2,    1.0249, 3,    7362.07,   79.8,    1.0226
"M1026760", 12.47, 1,    7249.24,  -44.5,    1.0069, 2,     7378.6, -166.2,    1.0249, 3,    7361.58,   79.8,    1.0225
"L3048205", 12.47, 3,    7331.03,   81.5,    1.0183, 0, 0, 0, 0, 0, 0, 0, 0
"M1108361", 12.47, 3,    7317.98,   81.4,    1.0164, 0, 0, 0, 0, 0, 0, 0, 0
"M3036169", 12.47, 1,    7162.28,  -44.7,   0.99482, 0, 0, 0, 0, 0, 0, 0, 0
"L2673317", 12.47, 1,     7162.2,  -44.7,   0.99481, 0, 0, 0, 0, 0, 0, 0, 0
"L3178981", 12.47, 2,     7259.3, -161.5,    1.0083, 0, 0, 0, 0, 0, 0, 0, 0
"M1047368", 12.47, 2,    7247.43, -161.6,    1.0066, 0, 0, 0, 0, 0, 0, 0, 0
"N1136354", 12.47, 1,     7232.9,  -43.1,    1.0046, 2,     7333.9, -165.1,    1.0187, 3,    7520.33,   80.3,    1.0446
"L2879794", 12.47, 1,    7168.59,  -38.6,    0.9957, 0, 0, 0, 0, 0, 0, 0, 0
"M1142811", 12.47, 1,    7168.31,  -38.6,   0.99566, 0, 0, 0, 0, 0, 0, 0, 0
"M1069565", 12.47, 2,    7296.85, -165.2,    1.0135, 0, 0, 0, 0, 0, 0, 0, 0
"L2785536", 12.47, 2,    7296.56, -165.2,    1.0135, 0, 0, 0, 0, 0, 0, 0, 0
"L3104114", 12.47, 2,    7252.55, -167.1,    1.0074, 0, 0, 0, 0, 0, 0, 0, 0
"M1009824", 12.47, 2,    7249.44, -167.1,    1.0069, 0, 0, 0, 0, 0, 0, 0, 0
"L2745848", 12.47, 1,    7317.46,  -44.4,    1.0164, 2,    7301.35, -166.5,    1.0141, 3,    7371.87,   79.3,    1.0239
"L2673308", 12.47, 1,    7316.49,  -44.4,    1.0162, 2,    7298.01, -166.5,    1.0137, 3,    7370.92,   79.3,    1.0238
"L2991939", 12.47, 1,    7314.62,  -44.4,     1.016, 2,    7291.67, -166.6,    1.0128, 3,    7368.97,   79.3,    1.0235
"L2916606", 12.47, 3,    7350.58,   81.5,     1.021, 0, 0, 0, 0, 0, 0, 0, 0
"L2822864", 12.47, 3,    7350.48,   81.5,     1.021, 0, 0, 0, 0, 0, 0, 0, 0
"M1142851", 12.47, 1,    7157.54,  -38.5,   0.99416, 2,    7233.75, -158.9,    1.0047, 3,    7468.22,   82.6,    1.0373
"196-31070", 12.47, 1,    7155.61,  -38.5,    0.9939, 2,    7232.64, -158.9,    1.0046, 3,    7468.08,   82.6,    1.0373
"M1209822", 12.47, 3,    7455.06,   84.9,    1.0355, 0, 0, 0, 0, 0, 0, 0, 0
"M1209823", 12.47, 3,    7451.84,   84.9,     1.035, 0, 0, 0, 0, 0, 0, 0, 0
"M1069550", 12.47, 2,    7301.12, -165.2,    1.0141, 0, 0, 0, 0, 0, 0, 0, 0
"M1069551", 12.47, 2,    7300.75, -165.2,    1.0141, 0, 0, 0, 0, 0, 0, 0, 0
"L3141397", 12.47, 2,    7149.98, -166.9,   0.99311, 0, 0, 0, 0, 0, 0, 0, 0
"L3649299", 12.47, 1,    7331.57,  -44.6,    1.0183, 0, 0, 0, 0, 0, 0, 0, 0
"M3772794", 12.47, 1,    7331.51,  -44.6,    1.0183, 0, 0, 0, 0, 0, 0, 0, 0
"P895106", 12.47, 2,    7118.86, -160.9,   0.98879, 0, 0, 0, 0, 0, 0, 0, 0
"L3048887", 12.47, 2,    7118.42, -160.9,   0.98873, 0, 0, 0, 0, 0, 0, 0, 0
"M1047824", 12.47, 2,    7124.12, -167.0,   0.98952, 0, 0, 0, 0, 0, 0, 0, 0
"M1047834", 12.47, 2,    7119.69, -167.0,   0.98891, 0, 0, 0, 0, 0, 0, 0, 0
"M1069350", 12.47, 1,    7298.06,  -44.3,    1.0137, 2,    7208.21, -166.8,    1.0012, 3,    7331.48,   78.9,    1.0183
"N1144668", 12.47, 1,    7298.33,  -44.3,    1.0137, 2,    7208.05, -166.8,    1.0012, 3,    7330.61,   78.9,    1.0182
"L2879072", 12.47, 2,    7163.34, -167.0,   0.99497, 0, 0, 0, 0, 0, 0, 0, 0
"M1047441", 12.47, 2,    7148.92, -167.0,   0.99297, 0, 0, 0, 0, 0, 0, 0, 0
"M1108274", 12.47, 2,     7437.2, -160.4,     1.033, 0, 0, 0, 0, 0, 0, 0, 0
"M1108269", 12.47, 2,    7437.09, -160.4,     1.033, 0, 0, 0, 0, 0, 0, 0, 0
"L3235244", 12.47, 1,    7289.59,  -44.3,    1.0125, 0, 0, 0, 0, 0, 0, 0, 0
"M1069398", 12.47, 1,     7289.2,  -44.3,    1.0125, 0, 0, 0, 0, 0, 0, 0, 0
"N1147862", 12.47, 1,    7229.29,  -44.9,    1.0041, 0, 0, 0, 0, 0, 0, 0, 0
"L2685805", 12.47, 1,    7229.14,  -44.9,    1.0041, 0, 0, 0, 0, 0, 0, 0, 0
"M1069247", 12.47, 1,    7298.52,  -44.3,    1.0137, 0, 0, 0, 0, 0, 0, 0, 0
"M1069248", 12.47, 1,    7298.27,  -44.3,    1.0137, 0, 0, 0, 0, 0, 0, 0, 0
"L2786273", 12.47, 2,     7436.5, -160.4,    1.0329, 0, 0, 0, 0, 0, 0, 0, 0
"M1108278", 12.47, 2,    7435.98, -160.4,    1.0328, 0, 0, 0, 0, 0, 0, 0, 0
"L3254238", 12.47, 1,    7226.68,  -40.8,    1.0038, 2,    7176.78, -161.7,   0.99684, 3,     7411.4,   79.9,    1.0294
"M1047303", 12.47, 1,    7221.68,  -40.7,    1.0031, 2,    7169.16, -161.7,   0.99578, 3,    7409.86,   79.9,    1.0292
"M1047633", 12.47, 3,    7467.97,   79.6,    1.0373, 0, 0, 0, 0, 0, 0, 0, 0
"L2897554", 12.47, 3,    7467.42,   79.6,    1.0372, 0, 0, 0, 0, 0, 0, 0, 0
"M1069627", 12.47, 2,     7248.4, -165.3,    1.0068, 0, 0, 0, 0, 0, 0, 0, 0
"L2897791", 12.47, 2,    7246.94, -165.3,    1.0066, 0, 0, 0, 0, 0, 0, 0, 0
"M1089097", 12.47, 2,    7441.08, -160.4,    1.0335, 0, 0, 0, 0, 0, 0, 0, 0
"M1108270", 12.47, 2,    7440.13, -160.4,    1.0334, 0, 0, 0, 0, 0, 0, 0, 0
"N1142101", 12.47, 1,    6823.08,  -41.0,   0.94771, 0, 0, 0, 0, 0, 0, 0, 0
"L2936214", 12.47, 1,    6823.01,  -41.0,    0.9477, 0, 0, 0, 0, 0, 0, 0, 0
"L3066810", 12.47, 3,    7357.45,   79.2,    1.0219, 0, 0, 0, 0, 0, 0, 0, 0
"L2897769", 12.47, 3,     7356.4,   79.2,    1.0218, 0, 0, 0, 0, 0, 0, 0, 0
"M1209758", 12.47, 2,    7385.58, -156.4,    1.0258, 0, 0, 0, 0, 0, 0, 0, 0
"M1209753", 12.47, 2,     7385.1, -156.5,    1.0258, 0, 0, 0, 0, 0, 0, 0, 0
"M1047528", 12.47, 1,    7411.83,  -44.3,    1.0295, 2,    7433.75, -166.3,    1.0325, 3,    7481.82,   79.7,    1.0392
"L2858166", 12.47, 1,    7411.31,  -44.3,    1.0294, 2,    7433.31, -166.3,    1.0325, 3,    7481.66,   79.7,    1.0392
"M1142843", 12.47, 1,    7176.27,  -38.4,   0.99677, 2,    7244.54, -158.7,    1.0062, 3,    7469.61,   82.7,    1.0375
"L3081380", 12.47, 1,    7175.94,  -38.4,   0.99672, 2,    7240.75, -158.7,    1.0057, 3,    7466.68,   82.6,    1.0371
"L2804272", 12.47, 2,    7300.33, -165.2,     1.014, 0, 0, 0, 0, 0, 0, 0, 0
"L2841641", 12.47, 2,    7300.24, -165.2,     1.014, 0, 0, 0, 0, 0, 0, 0, 0
"M1069393", 12.47, 2,    7187.55, -166.9,   0.99833, 0, 0, 0, 0, 0, 0, 0, 0
"M1069408", 12.47, 2,    7182.43, -166.9,   0.99762, 0, 0, 0, 0, 0, 0, 0, 0
"N1142104", 12.47, 1,    6794.17,  -41.3,   0.94369, 2,    7044.09, -162.4,   0.97841, 3,    7458.26,   81.4,    1.0359
"M1108500", 12.47, 1,    6788.94,  -41.3,   0.94297, 2,    7041.54, -162.5,   0.97805, 3,    7458.19,   81.4,    1.0359
"L3216348", 12.47, 1,    7130.18,  -44.8,   0.99036, 0, 0, 0, 0, 0, 0, 0, 0
"L2841627", 12.47, 1,    7128.54,  -44.8,   0.99014, 0, 0, 0, 0, 0, 0, 0, 0
"L2916599", 12.47, 1,    7285.02,  -44.8,    1.0119, 0, 0, 0, 0, 0, 0, 0, 0
"M1047447", 12.47, 2,    7133.53, -167.0,   0.99083, 0, 0, 0, 0, 0, 0, 0, 0
"L2954349", 12.47, 2,    7133.39, -167.0,   0.99081, 0, 0, 0, 0, 0, 0, 0, 0
"L3235246", 12.47, 2,    7124.04, -167.0,   0.98951, 0, 0, 0, 0, 0, 0, 0, 0
"M1125911", 12.47, 2,     7198.1, -159.1,    0.9998, 0, 0, 0, 0, 0, 0, 0, 0
"L2711224", 12.47, 2,    7196.71, -159.1,   0.99961, 0, 0, 0, 0, 0, 0, 0, 0
"N1147863", 12.47, 3,    7428.65,   79.6,    1.0318, 0, 0, 0, 0, 0, 0, 0, 0
"L3122817", 12.47, 3,    7428.64,   79.6,    1.0318, 0, 0, 0, 0, 0, 0, 0, 0
"M1186061", 12.47, 1,    7364.46,  -36.4,    1.0229, 2,    7387.25, -156.4,    1.0261, 3,    7507.71,   84.2,    1.0428
"L2861223", 12.47, 2,    7387.15, -156.4,    1.0261, 0, 0, 0, 0, 0, 0, 0, 0
"M1069130", 12.47, 1,    7309.99,  -40.7,    1.0153, 0, 0, 0, 0, 0, 0, 0, 0
"L3085396", 12.47, 1,    7309.69,  -40.7,    1.0153, 0, 0, 0, 0, 0, 0, 0, 0
"E182730", 12.47, 1,    7260.41,  -44.5,    1.0085, 0, 0, 0, 0, 0, 0, 0, 0
"N1142109", 12.47, 1,    7260.33,  -44.5,    1.0084, 0, 0, 0, 0, 0, 0, 0, 0
"M1069417", 12.47, 1,    7296.95,  -44.3,    1.0135, 2,    7224.13, -166.8,    1.0034, 3,    7346.93,   79.0,    1.0205
"N1138597", 12.47, 1,    7296.61,  -44.3,    1.0135, 2,    7222.73, -166.8,    1.0032, 3,    7346.44,   79.0,    1.0204
"M1026987", 12.47, 2,    7143.22, -166.9,   0.99217, 0, 0, 0, 0, 0, 0, 0, 0
"M1026990", 12.47, 2,     7141.7, -166.9,   0.99196, 0, 0, 0, 0, 0, 0, 0, 0
"M1142832", 12.47, 1,    7175.21,  -38.5,   0.99662, 2,    7232.78, -158.8,    1.0046, 3,    7460.61,   82.5,    1.0363
"L3160865", 12.47, 1,    7174.88,  -38.5,   0.99657, 2,    7230.55, -158.8,    1.0043, 3,    7459.07,   82.5,     1.036
"L2673323", 12.47, 3,    7418.48,   79.6,    1.0304, 0, 0, 0, 0, 0, 0, 0, 0
"M1009809", 12.47, 3,    7418.29,   79.6,    1.0304, 0, 0, 0, 0, 0, 0, 0, 0
"L2822869", 12.47, 1,    7322.24,  -44.4,     1.017, 2,    7384.85, -166.3,    1.0257, 3,    7403.91,   79.7,    1.0284
"M1026808", 12.47, 1,    7312.77,  -44.4,    1.0157, 2,    7383.97, -166.2,    1.0256, 3,    7397.79,   79.7,    1.0275
"M1047825", 12.47, 2,    7109.81, -167.0,   0.98753, 0, 0, 0, 0, 0, 0, 0, 0
"M1069731", 12.47, 2,    7108.19, -167.0,   0.98731, 0, 0, 0, 0, 0, 0, 0, 0
"N1140520", 12.47, 3,    7397.78,   79.7,    1.0275, 0, 0, 0, 0, 0, 0, 0, 0
"L2729410", 12.47, 3,    7397.74,   79.7,    1.0275, 0, 0, 0, 0, 0, 0, 0, 0
"L3178978", 12.47, 1,    7152.81,  -44.7,   0.99351, 0, 0, 0, 0, 0, 0, 0, 0
"M1069384", 12.47, 1,    7290.99,  -44.3,    1.0127, 0, 0, 0, 0, 0, 0, 0, 0
"L3066805", 12.47, 1,     7290.9,  -44.3,    1.0127, 0, 0, 0, 0, 0, 0, 0, 0
"M4362181", 12.47, 2,    7114.87, -167.1,   0.98824, 0, 0, 0, 0, 0, 0, 0, 0
"M1047319", 12.47, 3,    7404.71,   79.9,    1.0285, 0, 0, 0, 0, 0, 0, 0, 0
"M1047318", 12.47, 3,    7404.32,   79.9,    1.0284, 0, 0, 0, 0, 0, 0, 0, 0
"L3216358", 12.47, 1,     7272.5,  -44.8,    1.0101, 0, 0, 0, 0, 0, 0, 0, 0
"M1026826", 12.47, 1,    7271.18,  -44.8,    1.0099, 0, 0, 0, 0, 0, 0, 0, 0
"M1108276", 12.47, 2,    7436.81, -160.4,     1.033, 0, 0, 0, 0, 0, 0, 0, 0
"M1089198", 12.47, 1,    7335.43,  -42.3,    1.0189, 2,    7402.96, -163.9,    1.0283, 3,    7506.84,   80.8,    1.0427
"M1089201", 12.47, 1,    7318.82,  -42.5,    1.0166, 2,    7392.89, -164.1,    1.0269, 3,    7507.54,   80.7,    1.0428
"M1047763", 12.47, 1,    7312.35,  -44.1,    1.0157, 2,    7182.78, -166.8,   0.99767, 3,     7507.1,   79.6,    1.0427
"N1136027", 12.47, 1,    7312.06,  -44.1,    1.0156, 0, 0, 0, 0, 0, 0, 0, 0
"L3101827", 12.47, 3,    7501.43,   81.2,    1.0419, 0, 0, 0, 0, 0, 0, 0, 0
"M1108540", 12.47, 3,    7498.43,   81.2,    1.0415, 0, 0, 0, 0, 0, 0, 0, 0
"M1026335", 12.47, 1,    7175.24,  -40.7,   0.99662, 0, 0, 0, 0, 0, 0, 0, 0
"L2804259", 12.47, 1,    7175.12,  -40.7,   0.99661, 0, 0, 0, 0, 0, 0, 0, 0
"N1136357", 12.47, 3,    7522.09,   80.3,    1.0448, 0, 0, 0, 0, 0, 0, 0, 0
"M1047513", 12.47, 1,    7359.91,  -44.4,    1.0223, 2,    7396.73, -166.3,    1.0274, 3,    7430.89,   79.7,    1.0321
"M1047507", 12.47, 1,    7346.31,  -44.4,    1.0204, 2,    7386.85, -166.3,     1.026, 3,    7419.24,   79.7,    1.0305
"M1142863", 12.47, 1,    7137.24,  -38.7,   0.99134, 2,    7221.96, -159.1,    1.0031, 3,    7466.64,   82.5,    1.0371
"N1141480", 12.47, 3,    7466.62,   82.5,    1.0371, 0, 0, 0, 0, 0, 0, 0, 0
"M1125916", 12.47, 2,    7199.42, -159.1,   0.99998, 0, 0, 0, 0, 0, 0, 0, 0
"L2879767", 12.47, 2,    7199.28, -159.1,   0.99996, 0, 0, 0, 0, 0, 0, 0, 0
"L3066809", 12.47, 3,    7364.85,   79.3,     1.023, 0, 0, 0, 0, 0, 0, 0, 0
"M1069487", 12.47, 3,    7363.42,   79.3,    1.0228, 0, 0, 0, 0, 0, 0, 0, 0
"M1142818", 12.47, 1,    7172.81,  -38.6,   0.99628, 2,    7217.07, -159.0,    1.0024, 3,    7449.73,   82.2,    1.0347
"P829965", 12.47, 1,    7171.72,  -38.6,   0.99613, 2,    7216.68, -159.0,    1.0024, 3,    7449.79,   82.2,    1.0348
"Q14733", 12.47, 1,    7519.86,  -44.0,    1.0445, 2,    7517.01, -165.9,    1.0441, 3,    7538.87,   79.9,    1.0471
"M1047568", 12.47, 1,       7517,  -44.0,    1.0441, 2,    7514.86, -165.9,    1.0438, 3,    7537.27,   79.9,    1.0469
"M1047322", 12.47, 1,    7260.73,  -40.8,    1.0085, 0, 0, 0, 0, 0, 0, 0, 0
"L2954338", 12.47, 2,    7248.08, -167.1,    1.0067, 0, 0, 0, 0, 0, 0, 0, 0
"M1047409", 12.47, 1,    7132.01,  -44.8,   0.99062, 0, 0, 0, 0, 0, 0, 0, 0
"L2841648", 12.47, 1,    7131.64,  -44.8,   0.99057, 0, 0, 0, 0, 0, 0, 0, 0
"M1089177", 12.47, 3,    7265.94,   81.3,    1.0092, 0, 0, 0, 0, 0, 0, 0, 0
"M1026951", 12.47, 2,    7305.37, -167.0,    1.0147, 0, 0, 0, 0, 0, 0, 0, 0
"L2954347", 12.47, 2,    7305.12, -167.0,    1.0147, 0, 0, 0, 0, 0, 0, 0, 0
"M4122657", 12.47, 3,    7390.78,   84.8,    1.0266, 0, 0, 0, 0, 0, 0, 0, 0
"L3027124", 12.47, 3,    7390.36,   84.8,    1.0265, 0, 0, 0, 0, 0, 0, 0, 0
"M1069419", 12.47, 1,    7298.44,  -44.3,    1.0137, 2,    7230.35, -166.8,    1.0043, 3,    7348.88,   79.0,    1.0207
"M1069418", 12.47, 1,    7297.91,  -44.3,    1.0137, 2,    7228.14, -166.8,     1.004, 3,    7348.19,   79.0,    1.0206
"M1026824", 12.47, 1,    7215.32,  -44.9,    1.0022, 2,    7279.55, -167.1,    1.0111, 3,    7420.24,   79.6,    1.0307
"P859694", 12.47, 3,    7420.14,   79.6,    1.0306, 0, 0, 0, 0, 0, 0, 0, 0
"M1047453", 12.47, 2,    7119.42, -167.1,   0.98887, 0, 0, 0, 0, 0, 0, 0, 0
"L2691948", 12.47, 2,    7119.34, -167.1,   0.98886, 0, 0, 0, 0, 0, 0, 0, 0
"P860892", 12.47, 3,    7426.74,   80.5,    1.0316, 0, 0, 0, 0, 0, 0, 0, 0
"N1139543", 12.47, 3,    7426.68,   80.5,    1.0315, 0, 0, 0, 0, 0, 0, 0, 0
"M1089205", 12.47, 1,    7312.47,  -42.5,    1.0157, 0, 0, 0, 0, 0, 0, 0, 0
"N1134472", 12.47, 1,    7312.43,  -42.5,    1.0157, 0, 0, 0, 0, 0, 0, 0, 0
"L2710542", 12.47, 2,    7277.04, -167.1,    1.0108, 0, 0, 0, 0, 0, 0, 0, 0
"M3032980", 12.47, 1,     7367.3,  -36.4,    1.0233, 2,    7390.73, -156.4,    1.0266, 3,     7510.3,   84.3,    1.0432
"M3032977", 12.47, 1,    7331.99,  -36.8,    1.0184, 2,    7364.09, -156.8,    1.0229, 3,    7502.48,   84.0,    1.0421
"M3763618", 12.47, 1,    7358.55,  -44.5,    1.0221, 2,    7402.15, -166.5,    1.0281, 3,    7460.86,   79.6,    1.0363
"P1121282", 12.47, 3,    7460.85,   79.6,    1.0363, 0, 0, 0, 0, 0, 0, 0, 0
"L2917330", 12.47, 1,    7167.82,  -38.6,   0.99559, 0, 0, 0, 0, 0, 0, 0, 0
"L2861222", 12.47, 1,     7167.5,  -38.6,   0.99555, 0, 0, 0, 0, 0, 0, 0, 0
"M1047490", 12.47, 1,     7329.7,  -44.4,    1.0181, 2,    7360.65, -166.4,    1.0224, 3,    7402.14,   79.6,    1.0281
"P1164481", 12.47, 1,    7328.62,  -44.4,    1.0179, 0, 0, 0, 0, 0, 0, 0, 0
"M1069356", 12.47, 3,    7329.24,   78.9,     1.018, 0, 0, 0, 0, 0, 0, 0, 0
"M1069363", 12.47, 3,    7329.11,   78.9,     1.018, 0, 0, 0, 0, 0, 0, 0, 0
"P828359", 12.47, 3,    7470.38,   79.7,    1.0376, 0, 0, 0, 0, 0, 0, 0, 0
"L2878848", 12.47, 3,    7468.88,   79.7,    1.0374, 0, 0, 0, 0, 0, 0, 0, 0
"M1047486", 12.47, 1,    7322.81,  -44.4,    1.0171, 2,    7329.89, -166.4,    1.0181, 3,    7385.57,   79.4,    1.0258
"L3177665", 12.47, 1,    7322.77,  -44.4,    1.0171, 0, 0, 0, 0, 0, 0, 0, 0
"L2805036", 12.47, 2,    7435.91, -160.4,    1.0328, 0, 0, 0, 0, 0, 0, 0, 0
"L2692654", 12.47, 1,    7172.63,  -38.8,   0.99626, 0, 0, 0, 0, 0, 0, 0, 0
"M1125929", 12.47, 1,    7172.62,  -38.8,   0.99626, 0, 0, 0, 0, 0, 0, 0, 0
"M1047669", 12.47, 1,    7359.91,  -44.3,    1.0223, 2,    7343.37, -166.5,      1.02, 3,    7473.69,   79.7,    1.0381
"M1047672", 12.47, 1,    7359.73,  -44.3,    1.0222, 2,    7342.96, -166.5,    1.0199, 3,    7473.74,   79.7,    1.0381
"M1125919", 12.47, 1,    7172.98,  -38.8,   0.99631, 2,    7203.93, -159.1,    1.0006, 3,    7440.24,   82.0,    1.0334
"P829961", 12.47, 1,    7172.94,  -38.8,    0.9963, 0, 0, 0, 0, 0, 0, 0, 0
"M1142819", 12.47, 1,    7173.12,  -38.6,   0.99633, 2,     7219.4, -158.9,    1.0028, 3,    7451.47,   82.3,     1.035
"P829960", 12.47, 2,    7219.39, -158.9,    1.0028, 0, 0, 0, 0, 0, 0, 0, 0
"P829979", 12.47, 2,    7389.17, -156.4,    1.0263, 0, 0, 0, 0, 0, 0, 0, 0
"M3036172", 12.47, 2,    7388.91, -156.4,    1.0263, 0, 0, 0, 0, 0, 0, 0, 0
"M1026883", 12.47, 3,    7458.57,   79.6,     1.036, 0, 0, 0, 0, 0, 0, 0, 0
"M1026898", 12.47, 3,    7458.38,   79.6,    1.0359, 0, 0, 0, 0, 0, 0, 0, 0
"M1089143", 12.47, 1,    7036.09,  -39.6,    0.9773, 2,    7033.59, -160.0,   0.97695, 3,    7315.71,   81.1,    1.0161
"L3141400", 12.47, 1,       7036,  -39.6,   0.97728, 0, 0, 0, 0, 0, 0, 0, 0
"M1069481", 12.47, 1,    7317.91,  -44.4,    1.0164, 2,    7302.91, -166.5,    1.0144, 3,    7372.31,   79.3,     1.024
"P827507", 12.47, 3,    7372.29,   79.3,     1.024, 0, 0, 0, 0, 0, 0, 0, 0
"M1026377", 12.47, 1,     7164.2,  -40.7,   0.99509, 0, 0, 0, 0, 0, 0, 0, 0
"L3048210", 12.47, 1,    7163.75,  -40.7,   0.99503, 0, 0, 0, 0, 0, 0, 0, 0
"E182722", 12.47, 1,     7294.6,  -44.3,    1.0132, 0, 0, 0, 0, 0, 0, 0, 0
"M1026331", 12.47, 1,    7174.88,  -40.7,   0.99657, 2,    7093.51, -161.9,   0.98527, 3,    7418.67,   80.0,    1.0304
"L3214055", 12.47, 3,    7418.57,   80.0,    1.0304, 0, 0, 0, 0, 0, 0, 0, 0
"M1108295", 12.47, 1,    7146.17,  -39.1,   0.99258, 2,    7152.27, -159.5,   0.99343, 3,    7404.17,   81.5,    1.0284
"L2936279", 12.47, 1,    7133.72,  -39.2,   0.99086, 2,    7138.59, -159.5,   0.99153, 3,    7393.81,   81.4,     1.027
"M1026704", 12.47, 2,    7104.52, -167.1,    0.9868, 0, 0, 0, 0, 0, 0, 0, 0
"L2841634", 12.47, 2,    7104.05, -167.1,   0.98673, 0, 0, 0, 0, 0, 0, 0, 0
"M1047386", 12.47, 2,    7224.94, -161.6,    1.0035, 0, 0, 0, 0, 0, 0, 0, 0
"M1047379", 12.47, 2,    7224.06, -161.6,    1.0034, 0, 0, 0, 0, 0, 0, 0, 0
"M1089115", 12.47, 1,    7452.86,  -40.1,    1.0352, 2,    7428.49, -160.5,    1.0318, 3,    7447.03,   80.5,    1.0344
"M1026486", 12.47, 2,    7200.65, -161.7,    1.0002, 0, 0, 0, 0, 0, 0, 0, 0
"M1026488", 12.47, 2,    7200.64, -161.7,    1.0001, 0, 0, 0, 0, 0, 0, 0, 0
"L3010570", 12.47, 1,    7175.45,  -40.7,   0.99665, 0, 0, 0, 0, 0, 0, 0, 0
"P904451", 12.47, 1,    6879.11,  -40.4,   0.95549, 0, 0, 0, 0, 0, 0, 0, 0
"221-282819", 12.47, 1,       6879,  -40.4,   0.95548, 0, 0, 0, 0, 0, 0, 0, 0
"M1125968", 12.47, 1,    6957.09,  -40.0,   0.96632, 2,    7121.74, -160.8,   0.98919, 3,    7460.66,   81.9,    1.0363
"P895107", 12.47, 3,    7460.58,   81.9,    1.0363, 0, 0, 0, 0, 0, 0, 0, 0
"N1136999", 12.47, 1,    7359.68,  -44.3,    1.0222, 0, 0, 0, 0, 0, 0, 0, 0
"M1069412", 12.47, 2,    7176.41, -166.9,   0.99679, 0, 0, 0, 0, 0, 0, 0, 0
"L2879061", 12.47, 2,    7176.33, -166.9,   0.99677, 0, 0, 0, 0, 0, 0, 0, 0
"M1026947", 12.47, 2,    7305.52, -167.0,    1.0147, 0, 0, 0, 0, 0, 0, 0, 0
"M1142880", 12.47, 3,    7370.82,   84.7,    1.0238, 0, 0, 0, 0, 0, 0, 0, 0
"L2891575", 12.47, 3,    7370.66,   84.7,    1.0238, 0, 0, 0, 0, 0, 0, 0, 0
"M1026848", 12.47, 1,    7256.68,  -44.9,    1.0079, 0, 0, 0, 0, 0, 0, 0, 0
"M1026847", 12.47, 1,    7256.56,  -44.9,    1.0079, 0, 0, 0, 0, 0, 0, 0, 0
"L2897793", 12.47, 1,     7183.3,  -43.5,   0.99774, 0, 0, 0, 0, 0, 0, 0, 0
"M1069521", 12.47, 1,    7183.07,  -43.5,   0.99771, 0, 0, 0, 0, 0, 0, 0, 0
"M1069175", 12.47, 1,    7417.79,  -40.2,    1.0303, 2,    7395.77, -160.7,    1.0273, 3,    7434.94,   80.4,    1.0327
"L3197637", 12.47, 3,    7434.86,   80.4,    1.0327, 0, 0, 0, 0, 0, 0, 0, 0
"L3197635", 12.47, 2,    7148.82, -167.0,   0.99295, 0, 0, 0, 0, 0, 0, 0, 0
"L2804257", 12.47, 2,    7289.97, -167.0,    1.0126, 0, 0, 0, 0, 0, 0, 0, 0
"L2860485", 12.47, 2,    7289.73, -167.0,    1.0125, 0, 0, 0, 0, 0, 0, 0, 0
"L3235945", 12.47, 3,    7497.19,   81.2,    1.0413, 0, 0, 0, 0, 0, 0, 0, 0
"L2842330", 12.47, 3,     7496.8,   81.2,    1.0413, 0, 0, 0, 0, 0, 0, 0, 0
"L2804254", 12.47, 1,    7307.84,  -44.1,     1.015, 0, 0, 0, 0, 0, 0, 0, 0
"M1047752", 12.47, 1,    7307.79,  -44.1,     1.015, 0, 0, 0, 0, 0, 0, 0, 0
"M1166370", 12.47, 3,     7493.2,   83.6,    1.0408, 0, 0, 0, 0, 0, 0, 0, 0
"M1166364", 12.47, 3,    7493.11,   83.6,    1.0408, 0, 0, 0, 0, 0, 0, 0, 0
"M3763619", 12.47, 1,    7358.47,  -44.5,    1.0221, 2,     7402.2, -166.5,    1.0281, 3,    7461.14,   79.6,    1.0363
"M3037540", 12.47, 3,    7309.51,   81.4,    1.0153, 0, 0, 0, 0, 0, 0, 0, 0
"L2710509", 12.47, 3,    7309.49,   81.4,    1.0153, 0, 0, 0, 0, 0, 0, 0, 0
"L2763072", 12.47, 2,     7053.6, -162.0,   0.97973, 0, 0, 0, 0, 0, 0, 0, 0
"M4118754", 12.47, 2,    7049.91, -162.0,   0.97921, 0, 0, 0, 0, 0, 0, 0, 0
"M1089196", 12.47, 1,    7345.47,  -42.3,    1.0203, 2,    7409.08, -163.8,    1.0291, 3,    7506.42,   80.8,    1.0426
"M1047484", 12.47, 1,    7321.79,  -44.4,     1.017, 2,    7323.57, -166.5,    1.0172, 3,    7382.23,   79.4,    1.0254
"L3010560", 12.47, 1,    7321.18,  -44.4,    1.0169, 2,    7319.83, -166.5,    1.0167, 3,    7380.25,   79.4,    1.0251
"L3254219", 12.47, 3,    7427.58,   79.9,    1.0317, 0, 0, 0, 0, 0, 0, 0, 0
"L3254220", 12.47, 3,    7427.46,   79.9,    1.0317, 0, 0, 0, 0, 0, 0, 0, 0
"M1026648", 12.47, 1,    7167.81,  -44.7,   0.99559, 0, 0, 0, 0, 0, 0, 0, 0
"M1026647", 12.47, 1,    7165.98,  -44.7,   0.99534, 0, 0, 0, 0, 0, 0, 0, 0
"M1089112", 12.47, 1,    7443.12,  -40.1,    1.0338, 2,    7417.36, -160.6,    1.0303, 3,    7437.32,   80.5,     1.033
"L2691951", 12.47, 3,    7433.21,   80.5,    1.0325, 0, 0, 0, 0, 0, 0, 0, 0
"M1108433", 12.47, 2,    7058.44, -161.5,    0.9804, 0, 0, 0, 0, 0, 0, 0, 0
"228-1048090-1_INT", 12.47, 2,    7058.44, -161.5,    0.9804, 0, 0, 0, 0, 0, 0, 0, 0
"M1026327", 12.47, 2,    7081.16, -161.9,   0.98356, 0, 0, 0, 0, 0, 0, 0, 0
"L2841636", 12.47, 2,    7074.84, -161.9,   0.98268, 0, 0, 0, 0, 0, 0, 0, 0
"L2990826", 12.47, 1,     6867.9,  -40.4,   0.95393, 2,    7061.28, -161.5,   0.98079, 3,    7450.82,   81.8,    1.0349
"L2911069", 12.47, 2,    7227.68, -167.2,    1.0039, 0, 0, 0, 0, 0, 0, 0, 0
"L2948732", 12.47, 2,    7227.44, -167.2,    1.0039, 0, 0, 0, 0, 0, 0, 0, 0
"M1108260", 12.47, 2,    7432.37, -160.4,    1.0323, 0, 0, 0, 0, 0, 0, 0, 0
"M1108259", 12.47, 2,    7432.22, -160.4,    1.0323, 0, 0, 0, 0, 0, 0, 0, 0
"M1069312", 12.47, 3,    7325.84,   78.9,    1.0175, 0, 0, 0, 0, 0, 0, 0, 0
"P873800", 12.47, 3,    7325.83,   78.9,    1.0175, 0, 0, 0, 0, 0, 0, 0, 0
"M1186078", 12.47, 3,    7424.72,   84.9,    1.0313, 0, 0, 0, 0, 0, 0, 0, 0
"L2876797", 12.47, 1,    7315.77,  -44.1,    1.0161, 2,    7197.48, -166.8,   0.99971, 3,    7503.49,   79.7,    1.0422
"R18241", 12.47, 1,    7314.35,  -44.1,    1.0159, 2,    7191.35, -166.8,   0.99886, 3,       7505,   79.7,    1.0424
"L3254227", 12.47, 2,    7305.72, -165.2,    1.0147, 0, 0, 0, 0, 0, 0, 0, 0
"M3037455", 12.47, 3,    7459.81,   82.5,    1.0361, 0, 0, 0, 0, 0, 0, 0, 0
"L3217052", 12.47, 3,    7459.62,   82.5,    1.0361, 0, 0, 0, 0, 0, 0, 0, 0
"P827500", 12.47, 1,    7303.25,  -44.3,    1.0144, 0, 0, 0, 0, 0, 0, 0, 0
"L2822861", 12.47, 1,    7302.93,  -44.3,    1.0144, 0, 0, 0, 0, 0, 0, 0, 0
"M1047724", 12.47, 1,    7339.87,  -44.2,    1.0195, 2,    7284.44, -166.6,    1.0118, 3,    7483.32,   79.7,    1.0394
"M1047722", 12.47, 1,    7338.27,  -44.2,    1.0193, 2,    7279.24, -166.6,    1.0111, 3,    7484.35,   79.7,    1.0396
"D5534969-2_INT", 12.47, 1,    7238.06,  -43.1,    1.0053, 2,     7344.6, -165.0,    1.0201, 3,    7513.06,   80.3,    1.0435
"E182729", 12.47, 1,    7237.74,  -43.1,    1.0053, 2,    7344.28, -165.0,    1.0201, 3,    7512.86,   80.3,    1.0435
"N1134477", 12.47, 1,    7240.17,  -43.1,    1.0056, 2,    7345.83, -165.0,    1.0203, 3,    7512.89,   80.4,    1.0435
"M1166355", 12.47, 1,    7263.44,  -37.5,    1.0089, 0, 0, 0, 0, 0, 0, 0, 0
"L2858200", 12.47, 1,    7263.44,  -37.5,    1.0089, 0, 0, 0, 0, 0, 0, 0, 0
"M1047699", 12.47, 1,    7353.18,  -44.3,    1.0213, 2,    7326.36, -166.6,    1.0176, 3,    7475.86,   79.7,    1.0384
"L2935554", 12.47, 1,    7349.79,  -44.3,    1.0209, 2,    7316.68, -166.6,    1.0163, 3,     7477.5,   79.7,    1.0386
"M1047292", 12.47, 1,    7202.02,  -40.7,    1.0003, 2,    7140.57, -161.8,   0.99181, 3,    7410.51,   79.9,    1.0293
"L2766750", 12.47, 3,    7410.28,   79.9,    1.0293, 0, 0, 0, 0, 0, 0, 0, 0
"L3649300", 12.47, 1,    7330.84,  -44.6,    1.0182, 0, 0, 0, 0, 0, 0, 0, 0
"M1047733", 12.47, 1,    7180.26,  -43.5,   0.99732, 0, 0, 0, 0, 0, 0, 0, 0
"L3066804", 12.47, 1,    7179.99,  -43.5,   0.99728, 0, 0, 0, 0, 0, 0, 0, 0
"M3327098", 12.47, 2,    7115.14, -167.0,   0.98827, 0, 0, 0, 0, 0, 0, 0, 0
"L2691943", 12.47, 2,    7114.82, -167.0,   0.98823, 0, 0, 0, 0, 0, 0, 0, 0
"P829986", 12.47, 1,     7173.9,  -38.9,   0.99644, 0, 0, 0, 0, 0, 0, 0, 0
"M1125904", 12.47, 1,    7173.84,  -38.9,   0.99643, 0, 0, 0, 0, 0, 0, 0, 0
"N1139550", 12.47, 1,    7162.23,  -44.7,   0.99481, 0, 0, 0, 0, 0, 0, 0, 0
"M1026307", 12.47, 2,    7007.64, -162.0,   0.97334, 0, 0, 0, 0, 0, 0, 0, 0
"L3085388", 12.47, 2,     7007.5, -162.0,   0.97332, 0, 0, 0, 0, 0, 0, 0, 0
"L3233413", 12.47, 2,    7059.16, -161.5,    0.9805, 0, 0, 0, 0, 0, 0, 0, 0
"L3122827", 12.47, 1,    7188.45,  -44.6,   0.99846, 0, 0, 0, 0, 0, 0, 0, 0
"L2954355", 12.47, 1,       7186,  -44.6,   0.99812, 0, 0, 0, 0, 0, 0, 0, 0
"P827576", 12.47, 2,    7253.32, -166.7,    1.0075, 0, 0, 0, 0, 0, 0, 0, 0
"N1139256", 12.47, 2,    7253.31, -166.7,    1.0075, 0, 0, 0, 0, 0, 0, 0, 0
"L2952003", 12.47, 1,    6873.44,  -40.4,    0.9547, 2,    7066.93, -161.5,   0.98158, 3,    7455.42,   81.8,    1.0355
"N1136359", 12.47, 3,     7522.1,   80.3,    1.0448, 0, 0, 0, 0, 0, 0, 0, 0
"L3008237", 12.47, 3,    7522.02,   80.3,    1.0448, 0, 0, 0, 0, 0, 0, 0, 0
"M1089102", 12.47, 3,     7428.6,   80.5,    1.0318, 0, 0, 0, 0, 0, 0, 0, 0
"M1089096", 12.47, 3,    7426.42,   80.5,    1.0315, 0, 0, 0, 0, 0, 0, 0, 0
"P895102", 12.47, 2,    7125.63, -160.7,   0.98973, 0, 0, 0, 0, 0, 0, 0, 0
"M1125978", 12.47, 2,    7125.57, -160.7,   0.98972, 0, 0, 0, 0, 0, 0, 0, 0
"M1026706", 12.47, 1,    7188.66,  -44.6,   0.99849, 2,    7372.14, -166.2,     1.024, 3,    7321.57,   79.8,    1.0169
"N1140825", 12.47, 1,    7188.59,  -44.6,   0.99848, 2,    7372.03, -166.2,     1.024, 3,    7321.48,   79.8,    1.0169
"L3141399", 12.47, 3,    7395.12,   80.4,    1.0272, 0, 0, 0, 0, 0, 0, 0, 0
"M1069210", 12.47, 3,    7394.91,   80.4,    1.0271, 0, 0, 0, 0, 0, 0, 0, 0
"M3763624", 12.47, 1,    7358.55,  -44.5,    1.0221, 2,    7402.15, -166.5,    1.0281, 3,    7460.88,   79.6,    1.0363
"P1121283", 12.47, 3,    7460.75,   79.6,    1.0363, 0, 0, 0, 0, 0, 0, 0, 0
"M1142839", 12.47, 1,    7175.44,  -38.5,   0.99665, 2,    7235.27, -158.8,     1.005, 3,    7462.45,   82.5,    1.0365
"L3067507", 12.47, 3,    7462.38,   82.5,    1.0365, 0, 0, 0, 0, 0, 0, 0, 0
"N1141478", 12.47, 2,    7219.33, -158.9,    1.0027, 0, 0, 0, 0, 0, 0, 0, 0
"M1142826", 12.47, 2,    7218.87, -158.9,    1.0027, 0, 0, 0, 0, 0, 0, 0, 0
"M1108334", 12.47, 3,    7383.41,   81.6,    1.0255, 0, 0, 0, 0, 0, 0, 0, 0
"L2692664", 12.47, 3,    7383.34,   81.6,    1.0255, 0, 0, 0, 0, 0, 0, 0, 0
"L2823544", 12.47, 1,    6771.14,  -41.4,   0.94049, 0, 0, 0, 0, 0, 0, 0, 0
"226-23751", 12.47, 1,    7174.18,  -38.9,   0.99647, 2,     7187.7, -159.2,   0.99835, 3,    7426.86,   81.7,    1.0316
"P827536", 12.47, 1,    7281.24,  -44.8,    1.0113, 0, 0, 0, 0, 0, 0, 0, 0
"N1137999", 12.47, 1,     7280.8,  -44.8,    1.0113, 0, 0, 0, 0, 0, 0, 0, 0
"L3027157", 12.47, 1,    7323.15,  -44.2,    1.0172, 2,     7225.9, -166.8,    1.0037, 3,    7496.49,   79.7,    1.0412
"L2973155", 12.47, 1,    7319.51,  -44.1,    1.0167, 2,    7212.31, -166.8,    1.0018, 3,    7499.83,   79.7,    1.0417
"M1186052", 12.47, 1,    7359.84,  -36.4,    1.0223, 2,    7382.23, -156.5,    1.0254, 3,    7502.89,   84.2,    1.0421
"198-5320", 12.47, 1,    7359.79,  -36.4,    1.0223, 2,    7382.19, -156.5,    1.0254, 3,    7502.84,   84.2,    1.0421
"L3216346", 12.47, 1,    7182.36,  -44.9,   0.99761, 0, 0, 0, 0, 0, 0, 0, 0
"L2858163", 12.47, 1,     7181.1,  -44.9,   0.99744, 0, 0, 0, 0, 0, 0, 0, 0
"M1047813", 12.47, 2,    7124.46, -167.0,   0.98957, 0, 0, 0, 0, 0, 0, 0, 0
"L2973149", 12.47, 2,    7124.35, -167.0,   0.98955, 0, 0, 0, 0, 0, 0, 0, 0
"L3086079", 12.47, 2,     7388.9, -156.4,    1.0263, 0, 0, 0, 0, 0, 0, 0, 0
"M1069574", 12.47, 2,    7296.36, -165.2,    1.0134, 0, 0, 0, 0, 0, 0, 0, 0
"L2710530", 12.47, 2,    7296.31, -165.2,    1.0134, 0, 0, 0, 0, 0, 0, 0, 0
"M1069285", 12.47, 1,    7299.29,  -44.3,    1.0139, 3,    7326.08,   78.9,    1.0176, 0, 0, 0, 0
"M4113348", 12.47, 1,    7299.28,  -44.3,    1.0139, 3,    7326.07,   78.9,    1.0176, 0, 0, 0, 0
"L2879074", 12.47, 1,    7157.26,  -44.7,   0.99413, 0, 0, 0, 0, 0, 0, 0, 0
"M1026916", 12.47, 2,    7326.07, -167.0,    1.0176, 0, 0, 0, 0, 0, 0, 0, 0
"E193509", 12.47, 1,     7175.6,  -38.4,   0.99667, 2,    7237.43, -158.8,    1.0053, 3,    7464.09,   82.6,    1.0367
"M1047794", 12.47, 2,    7153.07, -166.9,   0.99354, 0, 0, 0, 0, 0, 0, 0, 0
"M1047796", 12.47, 2,    7152.92, -166.9,   0.99352, 0, 0, 0, 0, 0, 0, 0, 0
"L3027116", 12.47, 1,    7217.97,  -40.7,    1.0026, 2,    7163.91, -161.7,   0.99505, 3,    7409.88,   79.9,    1.0292
"L2929261", 12.47, 1,    7353.02,  -44.3,    1.0213, 0, 0, 0, 0, 0, 0, 0, 0
"M1166375", 12.47, 1,    7250.05,  -37.6,     1.007, 2,    7302.63, -157.8,    1.0143, 3,    7485.75,   83.3,    1.0398
"P895080", 12.47, 1,    7250.03,  -37.6,     1.007, 0, 0, 0, 0, 0, 0, 0, 0
"L2973156", 12.47, 2,     7197.5, -166.9,   0.99971, 0, 0, 0, 0, 0, 0, 0, 0
"M1069311", 12.47, 1,    7299.49,  -44.3,    1.0139, 2,    7207.32, -166.8,    1.0011, 3,    7326.84,   78.9,    1.0177
"M1069208", 12.47, 3,    7409.46,   80.4,    1.0292, 0, 0, 0, 0, 0, 0, 0, 0
"L2691945", 12.47, 3,    7409.39,   80.4,    1.0291, 0, 0, 0, 0, 0, 0, 0, 0
"N1140820", 12.47, 2,     7372.3, -166.2,     1.024, 0, 0, 0, 0, 0, 0, 0, 0
"M1026468", 12.47, 2,    7202.48, -161.7,    1.0004, 0, 0, 0, 0, 0, 0, 0, 0
"P901909", 12.47, 2,    7202.47, -161.7,    1.0004, 0, 0, 0, 0, 0, 0, 0, 0
"M1026662", 12.47, 1,    7181.63,  -44.7,   0.99751, 2,    7373.38, -166.2,    1.0241, 3,    7309.08,   79.8,    1.0152
"N1141473", 12.47, 1,    7181.59,  -44.7,    0.9975, 0, 0, 0, 0, 0, 0, 0, 0
"M1026941", 12.47, 1,    7278.69,  -44.8,     1.011, 0, 0, 0, 0, 0, 0, 0, 0
"M1026942", 12.47, 1,    7278.59,  -44.8,     1.011, 0, 0, 0, 0, 0, 0, 0, 0
"N1137985", 12.47, 1,    7338.25,  -44.2,    1.0193, 0, 0, 0, 0, 0, 0, 0, 0
"M1047713", 12.47, 1,    7347.97,  -44.3,    1.0206, 2,    7311.38, -166.6,    1.0155, 3,    7478.41,   79.7,    1.0387
"M1047720", 12.47, 1,    7343.87,  -44.3,      1.02, 2,    7297.54, -166.6,    1.0136, 3,     7480.7,   79.7,     1.039
"M1108298", 12.47, 1,    7170.75,  -39.0,     0.996, 2,     7179.3, -159.4,   0.99719, 3,    7424.27,   81.6,    1.0312
"196-36167", 12.47, 1,     7170.2,  -39.0,   0.99592, 2,    7178.71, -159.4,    0.9971, 3,    7424.29,   81.6,    1.0312
"E183472", 12.47, 1,     6893.8,  -40.4,   0.95753, 2,    7091.48, -161.4,   0.98499, 3,    7461.09,   81.8,    1.0363
"L2989566", 12.47, 1,    6884.33,  -40.4,   0.95622, 2,    7081.07, -161.4,   0.98354, 3,    7459.95,   81.8,    1.0362
"M1010007", 12.47, 1,    7106.26,  -45.1,   0.98704, 0, 0, 0, 0, 0, 0, 0, 0
"M1010004", 12.47, 1,    7105.27,  -45.1,    0.9869, 0, 0, 0, 0, 0, 0, 0, 0
"P862322", 12.47, 1,    6871.31,  -40.4,   0.95441, 2,    7064.79, -161.5,   0.98128, 3,    7453.56,   81.8,    1.0353
"M1089188", 12.47, 3,     7260.4,   81.3,    1.0085, 0, 0, 0, 0, 0, 0, 0, 0
"M1089189", 12.47, 3,    7259.96,   81.3,    1.0084, 0, 0, 0, 0, 0, 0, 0, 0
"L2972704", 12.47, 3,    7426.22,   80.5,    1.0315, 0, 0, 0, 0, 0, 0, 0, 0
"L3263051", 12.47, 3,    7426.02,   80.5,    1.0315, 0, 0, 0, 0, 0, 0, 0, 0
"N1139544", 12.47, 3,    7395.47,   80.4,    1.0272, 0, 0, 0, 0, 0, 0, 0, 0
"L2897776", 12.47, 3,    7395.36,   80.4,    1.0272, 0, 0, 0, 0, 0, 0, 0, 0
"N1230122", 12.47, 1,    6878.89,  -40.4,   0.95546, 0, 0, 0, 0, 0, 0, 0, 0
"L2689726", 12.47, 1,     7127.5,  -44.8,   0.98999, 0, 0, 0, 0, 0, 0, 0, 0
"M1142868", 12.47, 1,    7109.76,  -38.9,   0.98753, 2,    7206.14, -159.3,    1.0009, 3,    7465.13,   82.4,    1.0369
"M1142869", 12.47, 1,    7102.35,  -38.9,    0.9865, 2,    7201.87, -159.4,    1.0003, 3,    7464.74,   82.4,    1.0368
"L2767414", 12.47, 3,    7397.31,   81.6,    1.0275, 0, 0, 0, 0, 0, 0, 0, 0
"M1027027", 12.47, 3,    7354.02,   79.5,    1.0215, 0, 0, 0, 0, 0, 0, 0, 0
"L3270853", 12.47, 3,    7354.02,   79.5,    1.0215, 0, 0, 0, 0, 0, 0, 0, 0
"M1125982", 12.47, 2,    7125.25, -160.7,   0.98968, 0, 0, 0, 0, 0, 0, 0, 0
"M1069572", 12.47, 2,    7296.41, -165.2,    1.0135, 0, 0, 0, 0, 0, 0, 0, 0
"L3066826", 12.47, 2,    7296.07, -165.2,    1.0134, 0, 0, 0, 0, 0, 0, 0, 0
"M1166356", 12.47, 1,    7263.75,  -37.5,    1.0089, 0, 0, 0, 0, 0, 0, 0, 0
"L2730187", 12.47, 1,    7263.57,  -37.5,    1.0089, 0, 0, 0, 0, 0, 0, 0, 0
"L3122825", 12.47, 1,    7169.16,  -40.7,   0.99578, 0, 0, 0, 0, 0, 0, 0, 0
"L2991920", 12.47, 1,     7169.1,  -40.7,   0.99577, 0, 0, 0, 0, 0, 0, 0, 0
"N1134474", 12.47, 1,     7274.1,  -42.8,    1.0104, 2,     7365.7, -164.6,    1.0231, 3,    7510.17,   80.5,    1.0431
"M1069496", 12.47, 1,    7268.77,  -42.9,    1.0096, 2,    7362.56, -164.7,    1.0226, 3,    7510.59,   80.5,    1.0432
"L3122826", 12.47, 1,    7271.91,  -40.8,      1.01, 0, 0, 0, 0, 0, 0, 0, 0
"M1047358", 12.47, 1,    7271.58,  -40.8,      1.01, 0, 0, 0, 0, 0, 0, 0, 0
"L3142078", 12.47, 2,    7430.81, -160.4,    1.0321, 0, 0, 0, 0, 0, 0, 0, 0
"L2879752", 12.47, 2,     7430.6, -160.4,    1.0321, 0, 0, 0, 0, 0, 0, 0, 0
"P850072", 12.47, 1,    6868.65,  -40.4,   0.95404, 2,    7062.21, -161.5,   0.98092, 3,    7451.55,   81.8,     1.035
"221-311609", 12.47, 1,    6868.65,  -40.4,   0.95404, 2,     7062.2, -161.5,   0.98092, 3,    7451.54,   81.8,     1.035
...